Scots/data/case14.py
from numpy import array
def case14():
	ppc = {"version": '2'}
	ppc["baseMVA"] = 100.0
	ppc["bus"] = array([
		[1.0,    3.0, 0.0,      0.0,      0.0,    0.0,    1.0, 1.06,     0.0,      0.0,      1.0, 1.06,     0.94,     0.6, 10   ],
		[2.0,    2.0, 21.7,     12.7,     0.0,    0.0,    1.0, 1.045,    -4.98,    0.0,      1.0, 1.06,     0.94,     0.6, 10   ],
		[3.0,    2.0, 94.2,     19.0,     0.0,    0.0,    1.0, 1.01,     -12.72,   0.0,      1.0, 1.06,     0.94,     0.6, 10   ],
		[4.0,    1.0, 47.8,     -3.9,     0.0,    0.0,    1.0, 1.019,    -10.33,   0.0,      1.0, 1.06,     0.94,     0.6, 10   ],
		[5.0,    1.0, 7.6,      1.6,      0.0,    0.0,    1.0, 1.02,     -8.78,    0.0,      1.0, 1.06,     0.94,     0.6, 10   ],
		[6.0,    2.0, 11.2,     7.5,      0.0,    0.0,    1.0, 1.07,     -14.22,   0.0,      1.0, 1.06,     0.94,     0.6, 10   ],
		[7.0,    1.0, 0.0,      0.0,      0.0,    0.0,    1.0, 1.062,    -13.37,   0.0,      1.0, 1.06,     0.94,     0.6, 10   ],
		[8.0,    2.0, 0.0,      0.0,      0.0,    0.0,    1.0, 1.09,     -13.36,   0.0,      1.0, 1.06,     0.94,     0.6, 10   ],
		[9.0,    1.0, 29.5,     16.6,     0.0,    19.0,   1.0, 1.056,    -14.94,   0.0,      1.0, 1.06,     0.94,     0.6, 10   ],
		[10.0,   1.0, 9.0,      5.8,      0.0,    0.0,    1.0, 1.051,    -15.1,    0.0,      1.0, 1.06,     0.94,     0.6, 10   ],
		[11.0,   1.0, 3.5,      1.8,      0.0,    0.0,    1.0, 1.057,    -14.79,   0.0,      1.0, 1.06,     0.94,     0.6, 10   ],
		[12.0,   1.0, 6.1,      1.6,      0.0,    0.0,    1.0, 1.055,    -15.07,   0.0,      1.0, 1.06,     0.94,     0.6, 10   ],
		[13.0,   1.0, 13.5,     5.8,      0.0,    0.0,    1.0, 1.05,     -15.16,   0.0,      1.0, 1.06,     0.94,     0.6, 10   ],
		[14.0,   1.0, 14.9,     5.0,      0.0,    0.0,    1.0, 1.036,    -16.04,   0.0,      1.0, 1.06,     0.94,     0.6, 10   ]
	])
	ppc["gen"] = array([
		[1.0,    232.4,    -16.9,    10.0,     0.0,      1.06,     100.0,  1.0, 332.4,    0.0,      0, 0, 0, 0, 0, 0, 0, 0, 0, 0, 0, 99.72,    132.96    ],
		[2.0,    40.0,     42.4,     50.0,     -40.0,    1.045,    100.0,  1.0, 140.0,    0.0,      0, 0, 0, 0, 0, 0, 0, 0, 0, 0, 0, 42.0,     56.0      ],
		[3.0,    0.0,      23.4,     40.0,     0.0,      1.01,     100.0,  1.0, 100.0,    0.0,      0, 0, 0, 0, 0, 0, 0, 0, 0, 0, 0, 30.0,     40.0      ],
		[6.0,    0.0,      12.2,     24.0,     -6.0,     1.07,     100.0,  1.0, 100.0,    0.0,      0, 0, 0, 0, 0, 0, 0, 0, 0, 0, 0, 30.0,     40.0      ],
		[8.0,    0.0,      17.4,     24.0,     -6.0,     1.09,     100.0,  1.0, 100.0,    0.0,      0, 0, 0, 0, 0, 0, 0, 0, 0, 0, 0, 30.0,     40.0      ]
	])
	ppc["branch"] = array([
		[1.0,    2.0,    0.01938,       0.05917,       0.0528,        9900.0, 0.0,0.0,0.0,    0.0,1.0,-360.0, 360.0,  0.1     ],
		[1.0,    5.0,    0.05403,       0.22304,       0.0492,        9900.0, 0.0,0.0,0.0,    0.0,1.0,-360.0, 360.0,  0.1     ],
		[2.0,    3.0,    0.04699,       0.19797,       0.0438,        9900.0, 0.0,0.0,0.0,    0.0,1.0,-360.0, 360.0,  0.1     ],
		[2.0,    4.0,    0.05811,       0.17632,       0.034,         9900.0, 0.0,0.0,0.0,    0.0,1.0,-360.0, 360.0,  0.1     ],
		[2.0,    5.0,    0.05695,       0.17388,       0.0346,        9900.0, 0.0,0.0,0.0,    0.0,1.0,-360.0, 360.0,  0.1     ],
		[3.0,    4.0,    0.06701,       0.17103,       0.0128,        9900.0, 0.0,0.0,0.0,    0.0,1.0,-360.0, 360.0,  0.1     ],
		[4.0,    5.0,    0.01335,       0.04211,       0.0,           9900.0, 0.0,0.0,0.0,    0.0,1.0,-360.0, 360.0,  0.1     ],
		[4.0,    7.0,    0.0,           0.20912,       0.0,           9900.0, 0.0,0.0,0.978,  0.0,1.0,-360.0, 360.0,  0.1     ],
		[4.0,    9.0,    0.0,           0.55618,       0.0,           9900.0, 0.0,0.0,0.969,  0.0,1.0,-360.0, 360.0,  0.1     ],
		[5.0,    6.0,    0.0,           0.25202,       0.0,           9900.0, 0.0,0.0,0.932,  0.0,1.0,-360.0, 360.0,  0.1     ],
		[6.0,    11.0,   0.09498,       0.1989,        0.0,           9900.0, 0.0,0.0,0.0,    0.0,1.0,-360.0, 360.0,  0.1     ],
		[6.0,    12.0,   0.12291,       0.25581,       0.0,           9900.0, 0.0,0.0,0.0,    0.0,1.0,-360.0, 360.0,  0.1     ],
		[6.0,    13.0,   0.06615,       0.13027,       0.0,           9900.0, 0.0,0.0,0.0,    0.0,1.0,-360.0, 360.0,  0.1     ],
		[7.0,    8.0,    0.0,           0.17615,       0.0,           9900.0, 0.0,0.0,0.0,    0.0,1.0,-360.0, 360.0,  0.1     ],
		[7.0,    9.0,    0.0,           0.11001,       0.0,           9900.0, 0.0,0.0,0.0,    0.0,1.0,-360.0, 360.0,  0.1     ],
		[9.0,    10.0,   0.03181,       0.0845,        0.0,           9900.0, 0.0,0.0,0.0,    0.0,1.0,-360.0, 360.0,  0.1     ],
		[9.0,    14.0,   0.12711,       0.27038,       0.0,           9900.0, 0.0,0.0,0.0,    0.0,1.0,-360.0, 360.0,  0.1     ],
		[10.0,   11.0,   0.08205,       0.19207,       0.0,           9900.0, 0.0,0.0,0.0,    0.0,1.0,-360.0, 360.0,  0.1     ],
		[12.0,   13.0,   0.22092,       0.19988,       0.0,           9900.0, 0.0,0.0,0.0,    0.0,1.0,-360.0, 360.0,  0.1     ],
		[13.0,   14.0,   0.17093,       0.34802,       0.0,           9900.0, 0.0,0.0,0.0,    0.0,1.0,-360.0, 360.0,  0.1     ]
	])
	ppc["gencost"] = array([
		[2.0, 0.0, 0.0, 3.0, 0.0430293,20.0,   0.0,    24.0,   12.0    ],
		[2.0, 0.0, 0.0, 3.0, 0.25,20.0,   0.0,    24.0,   12.0    ],
		[2.0, 0.0, 0.0, 3.0, 0.01,40.0,   0.0,    48.0,   24.0    ],
		[2.0, 0.0, 0.0, 3.0, 0.01,40.0,   0.0,    48.0,   24.0    ],
		[2.0, 0.0, 0.0, 3.0, 0.01,40.0,   0.0,    48.0,   24.0    ]
	])
	ppc["contingency"] = array([
		{'gen': [0], 'branch': [], 'p': 0.001} ,
		{'gen': [1], 'branch': [], 'p': 0.001} ,
		{'gen': [2], 'branch': [], 'p': 0.001} ,
		{'gen': [3], 'branch': [], 'p': 0.001} ,
		{'gen': [4], 'branch': [], 'p': 0.001} ,
		{'gen': [], 'branch': [0], 'p': 0.001} ,
		{'gen': [], 'branch': [1], 'p': 0.001} ,
		{'gen': [], 'branch': [2], 'p': 0.001} ,
		{'gen': [], 'branch': [3], 'p': 0.001} ,
		{'gen': [], 'branch': [4], 'p': 0.001} ,
		{'gen': [], 'branch': [5], 'p': 0.001} ,
		{'gen': [], 'branch': [6], 'p': 0.001} ,
		{'gen': [], 'branch': [7], 'p': 0.001} ,
		{'gen': [], 'branch': [8], 'p': 0.001} ,
		{'gen': [], 'branch': [9], 'p': 0.001} ,
		{'gen': [], 'branch': [10], 'p': 0.001} ,
		{'gen': [], 'branch': [11], 'p': 0.001} ,
		{'gen': [], 'branch': [12], 'p': 0.001} ,
		{'gen': [], 'branch': [13], 'p': 0.001} ,
		{'gen': [], 'branch': [14], 'p': 0.001} ,
		{'gen': [], 'branch': [15], 'p': 0.001} ,
		{'gen': [], 'branch': [16], 'p': 0.001} ,
		{'gen': [], 'branch': [17], 'p': 0.001} ,
		{'gen': [], 'branch': [18], 'p': 0.001} ,
		{'gen': [], 'branch': [19], 'p': 0.001} ,
		{'gen': [0, 1], 'branch': [], 'p': 1e-05} ,
		{'gen': [0, 2], 'branch': [], 'p': 1e-05} ,
		{'gen': [0, 3], 'branch': [], 'p': 1e-05} ,
		{'gen': [0, 4], 'branch': [], 'p': 1e-05} ,
		{'gen': [1, 2], 'branch': [], 'p': 1e-05} ,
		{'gen': [1, 3], 'branch': [], 'p': 1e-05} ,
		{'gen': [1, 4], 'branch': [], 'p': 1e-05} ,
		{'gen': [2, 3], 'branch': [], 'p': 1e-05} ,
		{'gen': [2, 4], 'branch': [], 'p': 1e-05} ,
		{'gen': [3, 4], 'branch': [], 'p': 1e-05} ,
		{'gen': [], 'branch': [0, 1], 'p': 1e-05} ,
		{'gen': [], 'branch': [0, 2], 'p': 1e-05} ,
		{'gen': [], 'branch': [0, 3], 'p': 1e-05} ,
		{'gen': [], 'branch': [0, 4], 'p': 1e-05} ,
		{'gen': [], 'branch': [0, 5], 'p': 1e-05} ,
		{'gen': [], 'branch': [0, 6], 'p': 1e-05} ,
		{'gen': [], 'branch': [0, 7], 'p': 1e-05} ,
		{'gen': [], 'branch': [0, 8], 'p': 1e-05} ,
		{'gen': [], 'branch': [0, 9], 'p': 1e-05} ,
		{'gen': [], 'branch': [0, 10], 'p': 1e-05} ,
		{'gen': [], 'branch': [0, 11], 'p': 1e-05} ,
		{'gen': [], 'branch': [0, 12], 'p': 1e-05} ,
		{'gen': [], 'branch': [0, 13], 'p': 1e-05} ,
		{'gen': [], 'branch': [0, 14], 'p': 1e-05} ,
		{'gen': [], 'branch': [0, 15], 'p': 1e-05} ,
		{'gen': [], 'branch': [0, 16], 'p': 1e-05} ,
		{'gen': [], 'branch': [0, 17], 'p': 1e-05} ,
		{'gen': [], 'branch': [0, 18], 'p': 1e-05} ,
		{'gen': [], 'branch': [0, 19], 'p': 1e-05} ,
		{'gen': [], 'branch': [1, 2], 'p': 1e-05} ,
		{'gen': [], 'branch': [1, 3], 'p': 1e-05} ,
		{'gen': [], 'branch': [1, 4], 'p': 1e-05} ,
		{'gen': [], 'branch': [1, 5], 'p': 1e-05} ,
		{'gen': [], 'branch': [1, 6], 'p': 1e-05} ,
		{'gen': [], 'branch': [1, 7], 'p': 1e-05} ,
		{'gen': [], 'branch': [1, 8], 'p': 1e-05} ,
		{'gen': [], 'branch': [1, 9], 'p': 1e-05} ,
		{'gen': [], 'branch': [1, 10], 'p': 1e-05} ,
		{'gen': [], 'branch': [1, 11], 'p': 1e-05} ,
		{'gen': [], 'branch': [1, 12], 'p': 1e-05} ,
		{'gen': [], 'branch': [1, 13], 'p': 1e-05} ,
		{'gen': [], 'branch': [1, 14], 'p': 1e-05} ,
		{'gen': [], 'branch': [1, 15], 'p': 1e-05} ,
		{'gen': [], 'branch': [1, 16], 'p': 1e-05} ,
		{'gen': [], 'branch': [1, 17], 'p': 1e-05} ,
		{'gen': [], 'branch': [1, 18], 'p': 1e-05} ,
		{'gen': [], 'branch': [1, 19], 'p': 1e-05} ,
		{'gen': [], 'branch': [2, 3], 'p': 1e-05} ,
		{'gen': [], 'branch': [2, 4], 'p': 1e-05} ,
		{'gen': [], 'branch': [2, 5], 'p': 1e-05} ,
		{'gen': [], 'branch': [2, 6], 'p': 1e-05} ,
		{'gen': [], 'branch': [2, 7], 'p': 1e-05} ,
		{'gen': [], 'branch': [2, 8], 'p': 1e-05} ,
		{'gen': [], 'branch': [2, 9], 'p': 1e-05} ,
		{'gen': [], 'branch': [2, 10], 'p': 1e-05} ,
		{'gen': [], 'branch': [2, 11], 'p': 1e-05} ,
		{'gen': [], 'branch': [2, 12], 'p': 1e-05} ,
		{'gen': [], 'branch': [2, 13], 'p': 1e-05} ,
		{'gen': [], 'branch': [2, 14], 'p': 1e-05} ,
		{'gen': [], 'branch': [2, 15], 'p': 1e-05} ,
		{'gen': [], 'branch': [2, 16], 'p': 1e-05} ,
		{'gen': [], 'branch': [2, 17], 'p': 1e-05} ,
		{'gen': [], 'branch': [2, 18], 'p': 1e-05} ,
		{'gen': [], 'branch': [2, 19], 'p': 1e-05} ,
		{'gen': [], 'branch': [3, 4], 'p': 1e-05} ,
		{'gen': [], 'branch': [3, 5], 'p': 1e-05} ,
		{'gen': [], 'branch': [3, 6], 'p': 1e-05} ,
		{'gen': [], 'branch': [3, 7], 'p': 1e-05} ,
		{'gen': [], 'branch': [3, 8], 'p': 1e-05} ,
		{'gen': [], 'branch': [3, 9], 'p': 1e-05} ,
		{'gen': [], 'branch': [3, 10], 'p': 1e-05} ,
		{'gen': [], 'branch': [3, 11], 'p': 1e-05} ,
		{'gen': [], 'branch': [3, 12], 'p': 1e-05} ,
		{'gen': [], 'branch': [3, 13], 'p': 1e-05} ,
		{'gen': [], 'branch': [3, 14], 'p': 1e-05} ,
		{'gen': [], 'branch': [3, 15], 'p': 1e-05} ,
		{'gen': [], 'branch': [3, 16], 'p': 1e-05} ,
		{'gen': [], 'branch': [3, 17], 'p': 1e-05} ,
		{'gen': [], 'branch': [3, 18], 'p': 1e-05} ,
		{'gen': [], 'branch': [3, 19], 'p': 1e-05} ,
		{'gen': [], 'branch': [4, 5], 'p': 1e-05} ,
		{'gen': [], 'branch': [4, 6], 'p': 1e-05} ,
		{'gen': [], 'branch': [4, 7], 'p': 1e-05} ,
		{'gen': [], 'branch': [4, 8], 'p': 1e-05} ,
		{'gen': [], 'branch': [4, 9], 'p': 1e-05} ,
		{'gen': [], 'branch': [4, 10], 'p': 1e-05} ,
		{'gen': [], 'branch': [4, 11], 'p': 1e-05} ,
		{'gen': [], 'branch': [4, 12], 'p': 1e-05} ,
		{'gen': [], 'branch': [4, 13], 'p': 1e-05} ,
		{'gen': [], 'branch': [4, 14], 'p': 1e-05} ,
		{'gen': [], 'branch': [4, 15], 'p': 1e-05} ,
		{'gen': [], 'branch': [4, 16], 'p': 1e-05} ,
		{'gen': [], 'branch': [4, 17], 'p': 1e-05} ,
		{'gen': [], 'branch': [4, 18], 'p': 1e-05} ,
		{'gen': [], 'branch': [4, 19], 'p': 1e-05} ,
		{'gen': [], 'branch': [5, 6], 'p': 1e-05} ,
		{'gen': [], 'branch': [5, 7], 'p': 1e-05} ,
		{'gen': [], 'branch': [5, 8], 'p': 1e-05} ,
		{'gen': [], 'branch': [5, 9], 'p': 1e-05} ,
		{'gen': [], 'branch': [5, 10], 'p': 1e-05} ,
		{'gen': [], 'branch': [5, 11], 'p': 1e-05} ,
		{'gen': [], 'branch': [5, 12], 'p': 1e-05} ,
		{'gen': [], 'branch': [5, 13], 'p': 1e-05} ,
		{'gen': [], 'branch': [5, 14], 'p': 1e-05} ,
		{'gen': [], 'branch': [5, 15], 'p': 1e-05} ,
		{'gen': [], 'branch': [5, 16], 'p': 1e-05} ,
		{'gen': [], 'branch': [5, 17], 'p': 1e-05} ,
		{'gen': [], 'branch': [5, 18], 'p': 1e-05} ,
		{'gen': [], 'branch': [5, 19], 'p': 1e-05} ,
		{'gen': [], 'branch': [6, 7], 'p': 1e-05} ,
		{'gen': [], 'branch': [6, 8], 'p': 1e-05} ,
		{'gen': [], 'branch': [6, 9], 'p': 1e-05} ,
		{'gen': [], 'branch': [6, 10], 'p': 1e-05} ,
		{'gen': [], 'branch': [6, 11], 'p': 1e-05} ,
		{'gen': [], 'branch': [6, 12], 'p': 1e-05} ,
		{'gen': [], 'branch': [6, 13], 'p': 1e-05} ,
		{'gen': [], 'branch': [6, 14], 'p': 1e-05} ,
		{'gen': [], 'branch': [6, 15], 'p': 1e-05} ,
		{'gen': [], 'branch': [6, 16], 'p': 1e-05} ,
		{'gen': [], 'branch': [6, 17], 'p': 1e-05} ,
		{'gen': [], 'branch': [6, 18], 'p': 1e-05} ,
		{'gen': [], 'branch': [6, 19], 'p': 1e-05} ,
		{'gen': [], 'branch': [7, 8], 'p': 1e-05} ,
		{'gen': [], 'branch': [7, 9], 'p': 1e-05} ,
		{'gen': [], 'branch': [7, 10], 'p': 1e-05} ,
		{'gen': [], 'branch': [7, 11], 'p': 1e-05} ,
		{'gen': [], 'branch': [7, 12], 'p': 1e-05} ,
		{'gen': [], 'branch': [7, 13], 'p': 1e-05} ,
		{'gen': [], 'branch': [7, 14], 'p': 1e-05} ,
		{'gen': [], 'branch': [7, 15], 'p': 1e-05} ,
		{'gen': [], 'branch': [7, 16], 'p': 1e-05} ,
		{'gen': [], 'branch': [7, 17], 'p': 1e-05} ,
		{'gen': [], 'branch': [7, 18], 'p': 1e-05} ,
		{'gen': [], 'branch': [7, 19], 'p': 1e-05} ,
		{'gen': [], 'branch': [8, 9], 'p': 1e-05} ,
		{'gen': [], 'branch': [8, 10], 'p': 1e-05} ,
		{'gen': [], 'branch': [8, 11], 'p': 1e-05} ,
		{'gen': [], 'branch': [8, 12], 'p': 1e-05} ,
		{'gen': [], 'branch': [8, 13], 'p': 1e-05} ,
		{'gen': [], 'branch': [8, 14], 'p': 1e-05} ,
		{'gen': [], 'branch': [8, 15], 'p': 1e-05} ,
		{'gen': [], 'branch': [8, 16], 'p': 1e-05} ,
		{'gen': [], 'branch': [8, 17], 'p': 1e-05} ,
		{'gen': [], 'branch': [8, 18], 'p': 1e-05} ,
		{'gen': [], 'branch': [8, 19], 'p': 1e-05} ,
		{'gen': [], 'branch': [9, 10], 'p': 1e-05} ,
		{'gen': [], 'branch': [9, 11], 'p': 1e-05} ,
		{'gen': [], 'branch': [9, 12], 'p': 1e-05} ,
		{'gen': [], 'branch': [9, 13], 'p': 1e-05} ,
		{'gen': [], 'branch': [9, 14], 'p': 1e-05} ,
		{'gen': [], 'branch': [9, 15], 'p': 1e-05} ,
		{'gen': [], 'branch': [9, 16], 'p': 1e-05} ,
		{'gen': [], 'branch': [9, 17], 'p': 1e-05} ,
		{'gen': [], 'branch': [9, 18], 'p': 1e-05} ,
		{'gen': [], 'branch': [9, 19], 'p': 1e-05} ,
		{'gen': [], 'branch': [10, 11], 'p': 1e-05} ,
		{'gen': [], 'branch': [10, 12], 'p': 1e-05} ,
		{'gen': [], 'branch': [10, 13], 'p': 1e-05} ,
		{'gen': [], 'branch': [10, 14], 'p': 1e-05} ,
		{'gen': [], 'branch': [10, 15], 'p': 1e-05} ,
		{'gen': [], 'branch': [10, 16], 'p': 1e-05} ,
		{'gen': [], 'branch': [10, 17], 'p': 1e-05} ,
		{'gen': [], 'branch': [10, 18], 'p': 1e-05} ,
		{'gen': [], 'branch': [10, 19], 'p': 1e-05} ,
		{'gen': [], 'branch': [11, 12], 'p': 1e-05} ,
		{'gen': [], 'branch': [11, 13], 'p': 1e-05} ,
		{'gen': [], 'branch': [11, 14], 'p': 1e-05} ,
		{'gen': [], 'branch': [11, 15], 'p': 1e-05} ,
		{'gen': [], 'branch': [11, 16], 'p': 1e-05} ,
		{'gen': [], 'branch': [11, 17], 'p': 1e-05} ,
		{'gen': [], 'branch': [11, 18], 'p': 1e-05} ,
		{'gen': [], 'branch': [11, 19], 'p': 1e-05} ,
		{'gen': [], 'branch': [12, 13], 'p': 1e-05} ,
		{'gen': [], 'branch': [12, 14], 'p': 1e-05} ,
		{'gen': [], 'branch': [12, 15], 'p': 1e-05} ,
		{'gen': [], 'branch': [12, 16], 'p': 1e-05} ,
		{'gen': [], 'branch': [12, 17], 'p': 1e-05} ,
		{'gen': [], 'branch': [12, 18], 'p': 1e-05} ,
		{'gen': [], 'branch': [12, 19], 'p': 1e-05} ,
		{'gen': [], 'branch': [13, 14], 'p': 1e-05} ,
		{'gen': [], 'branch': [13, 15], 'p': 1e-05} ,
		{'gen': [], 'branch': [13, 16], 'p': 1e-05} ,
		{'gen': [], 'branch': [13, 17], 'p': 1e-05} ,
		{'gen': [], 'branch': [13, 18], 'p': 1e-05} ,
		{'gen': [], 'branch': [13, 19], 'p': 1e-05} ,
		{'gen': [], 'branch': [14, 15], 'p': 1e-05} ,
		{'gen': [], 'branch': [14, 16], 'p': 1e-05} ,
		{'gen': [], 'branch': [14, 17], 'p': 1e-05} ,
		{'gen': [], 'branch': [14, 18], 'p': 1e-05} ,
		{'gen': [], 'branch': [14, 19], 'p': 1e-05} ,
		{'gen': [], 'branch': [15, 16], 'p': 1e-05} ,
		{'gen': [], 'branch': [15, 17], 'p': 1e-05} ,
		{'gen': [], 'branch': [15, 18], 'p': 1e-05} ,
		{'gen': [], 'branch': [15, 19], 'p': 1e-05} ,
		{'gen': [], 'branch': [16, 17], 'p': 1e-05} ,
		{'gen': [], 'branch': [16, 18], 'p': 1e-05} ,
		{'gen': [], 'branch': [16, 19], 'p': 1e-05} ,
		{'gen': [], 'branch': [17, 18], 'p': 1e-05} ,
		{'gen': [], 'branch': [17, 19], 'p': 1e-05} ,
		{'gen': [], 'branch': [18, 19], 'p': 1e-05} ,
		{'gen': [0], 'branch': [0], 'p': 1e-05} ,
		{'gen': [0], 'branch': [1], 'p': 1e-05} ,
		{'gen': [0], 'branch': [2], 'p': 1e-05} ,
		{'gen': [0], 'branch': [3], 'p': 1e-05} ,
		{'gen': [0], 'branch': [4], 'p': 1e-05} ,
		{'gen': [0], 'branch': [5], 'p': 1e-05} ,
		{'gen': [0], 'branch': [6], 'p': 1e-05} ,
		{'gen': [0], 'branch': [7], 'p': 1e-05} ,
		{'gen': [0], 'branch': [8], 'p': 1e-05} ,
		{'gen': [0], 'branch': [9], 'p': 1e-05} ,
		{'gen': [0], 'branch': [10], 'p': 1e-05} ,
		{'gen': [0], 'branch': [11], 'p': 1e-05} ,
		{'gen': [0], 'branch': [12], 'p': 1e-05} ,
		{'gen': [0], 'branch': [13], 'p': 1e-05} ,
		{'gen': [0], 'branch': [14], 'p': 1e-05} ,
		{'gen': [0], 'branch': [15], 'p': 1e-05} ,
		{'gen': [0], 'branch': [16], 'p': 1e-05} ,
		{'gen': [0], 'branch': [17], 'p': 1e-05} ,
		{'gen': [0], 'branch': [18], 'p': 1e-05} ,
		{'gen': [0], 'branch': [19], 'p': 1e-05} ,
		{'gen': [1], 'branch': [0], 'p': 1e-05} ,
		{'gen': [1], 'branch': [1], 'p': 1e-05} ,
		{'gen': [1], 'branch': [2], 'p': 1e-05} ,
		{'gen': [1], 'branch': [3], 'p': 1e-05} ,
		{'gen': [1], 'branch': [4], 'p': 1e-05} ,
		{'gen': [1], 'branch': [5], 'p': 1e-05} ,
		{'gen': [1], 'branch': [6], 'p': 1e-05} ,
		{'gen': [1], 'branch': [7], 'p': 1e-05} ,
		{'gen': [1], 'branch': [8], 'p': 1e-05} ,
		{'gen': [1], 'branch': [9], 'p': 1e-05} ,
		{'gen': [1], 'branch': [10], 'p': 1e-05} ,
		{'gen': [1], 'branch': [11], 'p': 1e-05} ,
		{'gen': [1], 'branch': [12], 'p': 1e-05} ,
		{'gen': [1], 'branch': [13], 'p': 1e-05} ,
		{'gen': [1], 'branch': [14], 'p': 1e-05} ,
		{'gen': [1], 'branch': [15], 'p': 1e-05} ,
		{'gen': [1], 'branch': [16], 'p': 1e-05} ,
		{'gen': [1], 'branch': [17], 'p': 1e-05} ,
		{'gen': [1], 'branch': [18], 'p': 1e-05} ,
		{'gen': [1], 'branch': [19], 'p': 1e-05} ,
		{'gen': [2], 'branch': [0], 'p': 1e-05} ,
		{'gen': [2], 'branch': [1], 'p': 1e-05} ,
		{'gen': [2], 'branch': [2], 'p': 1e-05} ,
		{'gen': [2], 'branch': [3], 'p': 1e-05} ,
		{'gen': [2], 'branch': [4], 'p': 1e-05} ,
		{'gen': [2], 'branch': [5], 'p': 1e-05} ,
		{'gen': [2], 'branch': [6], 'p': 1e-05} ,
		{'gen': [2], 'branch': [7], 'p': 1e-05} ,
		{'gen': [2], 'branch': [8], 'p': 1e-05} ,
		{'gen': [2], 'branch': [9], 'p': 1e-05} ,
		{'gen': [2], 'branch': [10], 'p': 1e-05} ,
		{'gen': [2], 'branch': [11], 'p': 1e-05} ,
		{'gen': [2], 'branch': [12], 'p': 1e-05} ,
		{'gen': [2], 'branch': [13], 'p': 1e-05} ,
		{'gen': [2], 'branch': [14], 'p': 1e-05} ,
		{'gen': [2], 'branch': [15], 'p': 1e-05} ,
		{'gen': [2], 'branch': [16], 'p': 1e-05} ,
		{'gen': [2], 'branch': [17], 'p': 1e-05} ,
		{'gen': [2], 'branch': [18], 'p': 1e-05} ,
		{'gen': [2], 'branch': [19], 'p': 1e-05} ,
		{'gen': [3], 'branch': [0], 'p': 1e-05} ,
		{'gen': [3], 'branch': [1], 'p': 1e-05} ,
		{'gen': [3], 'branch': [2], 'p': 1e-05} ,
		{'gen': [3], 'branch': [3], 'p': 1e-05} ,
		{'gen': [3], 'branch': [4], 'p': 1e-05} ,
		{'gen': [3], 'branch': [5], 'p': 1e-05} ,
		{'gen': [3], 'branch': [6], 'p': 1e-05} ,
		{'gen': [3], 'branch': [7], 'p': 1e-05} ,
		{'gen': [3], 'branch': [8], 'p': 1e-05} ,
		{'gen': [3], 'branch': [9], 'p': 1e-05} ,
		{'gen': [3], 'branch': [10], 'p': 1e-05} ,
		{'gen': [3], 'branch': [11], 'p': 1e-05} ,
		{'gen': [3], 'branch': [12], 'p': 1e-05} ,
		{'gen': [3], 'branch': [13], 'p': 1e-05} ,
		{'gen': [3], 'branch': [14], 'p': 1e-05} ,
		{'gen': [3], 'branch': [15], 'p': 1e-05} ,
		{'gen': [3], 'branch': [16], 'p': 1e-05} ,
		{'gen': [3], 'branch': [17], 'p': 1e-05} ,
		{'gen': [3], 'branch': [18], 'p': 1e-05} ,
		{'gen': [3], 'branch': [19], 'p': 1e-05} ,
		{'gen': [4], 'branch': [0], 'p': 1e-05} ,
		{'gen': [4], 'branch': [1], 'p': 1e-05} ,
		{'gen': [4], 'branch': [2], 'p': 1e-05} ,
		{'gen': [4], 'branch': [3], 'p': 1e-05} ,
		{'gen': [4], 'branch': [4], 'p': 1e-05} ,
		{'gen': [4], 'branch': [5], 'p': 1e-05} ,
		{'gen': [4], 'branch': [6], 'p': 1e-05} ,
		{'gen': [4], 'branch': [7], 'p': 1e-05} ,
		{'gen': [4], 'branch': [8], 'p': 1e-05} ,
		{'gen': [4], 'branch': [9], 'p': 1e-05} ,
		{'gen': [4], 'branch': [10], 'p': 1e-05} ,
		{'gen': [4], 'branch': [11], 'p': 1e-05} ,
		{'gen': [4], 'branch': [12], 'p': 1e-05} ,
		{'gen': [4], 'branch': [13], 'p': 1e-05} ,
		{'gen': [4], 'branch': [14], 'p': 1e-05} ,
		{'gen': [4], 'branch': [15], 'p': 1e-05} ,
		{'gen': [4], 'branch': [16], 'p': 1e-05} ,
		{'gen': [4], 'branch': [17], 'p': 1e-05} ,
		{'gen': [4], 'branch': [18], 'p': 1e-05} ,
		{'gen': [4], 'branch': [19], 'p': 1e-05}
	])
	return ppc